Version 4.1
SHEET 1 2584 948
WIRE -96 -1920 -432 -1920
WIRE 784 -1920 208 -1920
WIRE -432 -1856 -432 -1920
WIRE -176 -1840 -240 -1840
WIRE -96 -1840 -176 -1840
WIRE 336 -1840 208 -1840
WIRE 448 -1840 336 -1840
WIRE 640 -1840 528 -1840
WIRE 784 -1824 784 -1920
WIRE 640 -1792 640 -1840
WIRE 688 -1792 640 -1792
WIRE 720 -1792 688 -1792
WIRE -656 -1776 -704 -1776
WIRE -608 -1776 -656 -1776
WIRE -96 -1760 -224 -1760
WIRE 272 -1760 208 -1760
WIRE 336 -1744 336 -1840
WIRE 384 -1744 336 -1744
WIRE 528 -1744 464 -1744
WIRE 640 -1744 640 -1792
WIRE 640 -1744 592 -1744
WIRE -608 -1728 -608 -1776
WIRE -432 -1680 -432 -1776
WIRE -224 -1680 -224 -1760
WIRE -224 -1680 -432 -1680
WIRE -96 -1680 -224 -1680
WIRE 640 -1680 640 -1744
WIRE 640 -1680 208 -1680
WIRE -224 -1632 -224 -1680
WIRE 272 -1616 272 -1760
WIRE 704 -1616 272 -1616
WIRE 784 -1616 784 -1744
WIRE 784 -1616 704 -1616
WIRE -608 -1568 -608 -1648
WIRE -656 -1472 -704 -1472
WIRE -608 -1472 -656 -1472
WIRE -96 -1424 -432 -1424
WIRE 784 -1424 208 -1424
WIRE -608 -1408 -608 -1472
WIRE -432 -1360 -432 -1424
WIRE -176 -1344 -240 -1344
WIRE -96 -1344 -176 -1344
WIRE 336 -1344 208 -1344
WIRE 448 -1344 336 -1344
WIRE 640 -1344 528 -1344
WIRE 784 -1328 784 -1424
WIRE 640 -1296 640 -1344
WIRE 688 -1296 640 -1296
WIRE 720 -1296 688 -1296
WIRE -608 -1264 -608 -1328
WIRE -96 -1264 -224 -1264
WIRE 272 -1264 208 -1264
WIRE 336 -1248 336 -1344
WIRE 384 -1248 336 -1248
WIRE 528 -1248 464 -1248
WIRE 640 -1248 640 -1296
WIRE 640 -1248 592 -1248
WIRE -432 -1184 -432 -1280
WIRE -224 -1184 -224 -1264
WIRE -224 -1184 -432 -1184
WIRE -96 -1184 -224 -1184
WIRE 640 -1184 640 -1248
WIRE 640 -1184 208 -1184
WIRE -224 -1136 -224 -1184
WIRE 272 -1120 272 -1264
WIRE 784 -1120 784 -1248
WIRE 784 -1120 272 -1120
WIRE 784 -1088 784 -1120
WIRE -656 -784 -1024 -784
WIRE -464 -784 -592 -784
WIRE -336 -784 -464 -784
WIRE 208 -784 -336 -784
WIRE 352 -784 208 -784
WIRE 496 -784 432 -784
WIRE 720 -784 576 -784
WIRE 960 -784 720 -784
WIRE -656 -720 -656 -784
WIRE -592 -720 -592 -784
WIRE -1024 -688 -1024 -784
WIRE -112 -592 -144 -592
WIRE -80 -592 -112 -592
WIRE 208 -592 208 -784
WIRE 208 -592 160 -592
WIRE 720 -592 720 -784
WIRE 960 -592 960 -784
WIRE -80 -528 -96 -528
WIRE 208 -528 160 -528
WIRE 720 -464 720 -528
WIRE -656 -448 -656 -480
WIRE -592 -448 -592 -480
WIRE -464 -448 -464 -784
WIRE -464 -448 -592 -448
WIRE -656 -432 -656 -448
WIRE -1024 -240 -1024 -608
WIRE -96 -240 -96 -528
WIRE -96 -240 -1024 -240
WIRE 208 -240 208 -528
WIRE 208 -240 -96 -240
WIRE 720 -240 720 -384
WIRE 720 -240 208 -240
WIRE 960 -240 960 -512
WIRE 960 -240 720 -240
WIRE -1024 -160 -1024 -240
FLAG 688 -1792 G1H
FLAG -176 -1840 epwm1A
FLAG -224 -1632 0
FLAG 688 -1296 G1L
FLAG -176 -1344 epwm1B
FLAG -224 -1136 0
FLAG -1024 -160 0
FLAG -656 -448 G1H
FLAG -112 -592 G1L
FLAG -656 -1776 epwm1A
FLAG -656 -1472 epwm1B
FLAG -608 -1568 0
FLAG -608 -1264 0
FLAG -336 -784 sw
FLAG 704 -1616 sw
FLAG 784 -1088 0
SYMBOL PowerProducts\\MAX22701E 48 -1840 R0
SYMATTR InstName U1
SYMBOL diode 592 -1760 R90
WINDOW 0 0 32 VBottom 2
WINDOW 3 32 32 VTop 2
SYMATTR InstName D1
SYMATTR Value ZLLS350
SYMBOL res 544 -1856 R90
WINDOW 0 0 56 VBottom 2
WINDOW 3 32 56 VTop 2
SYMATTR InstName R1
SYMATTR Value 4
SYMBOL voltage -432 -1872 R0
WINDOW 123 0 0 Left 0
WINDOW 39 0 0 Left 0
SYMATTR InstName V1
SYMATTR Value 5
SYMBOL voltage 784 -1840 R0
WINDOW 123 0 0 Left 0
WINDOW 39 0 0 Left 0
SYMATTR InstName V2
SYMATTR Value 15
SYMBOL res 480 -1760 R90
WINDOW 0 0 56 VBottom 2
WINDOW 3 32 56 VTop 2
SYMATTR InstName R4
SYMATTR Value 2
SYMBOL PowerProducts\\MAX22701E 48 -1344 R0
SYMATTR InstName U2
SYMBOL diode 592 -1264 R90
WINDOW 0 0 32 VBottom 2
WINDOW 3 32 32 VTop 2
SYMATTR InstName D2
SYMATTR Value ZLLS350
SYMBOL res 544 -1360 R90
WINDOW 0 0 56 VBottom 2
WINDOW 3 32 56 VTop 2
SYMATTR InstName R2
SYMATTR Value 4
SYMBOL voltage -432 -1376 R0
WINDOW 123 0 0 Left 0
WINDOW 39 0 0 Left 0
SYMATTR InstName V3
SYMATTR Value 5
SYMBOL voltage 784 -1344 R0
WINDOW 123 0 0 Left 0
WINDOW 39 0 0 Left 0
SYMATTR InstName V4
SYMATTR Value 15
SYMBOL res 480 -1264 R90
WINDOW 0 0 56 VBottom 2
WINDOW 3 32 56 VTop 2
SYMATTR InstName R3
SYMATTR Value 2
SYMBOL IMT65R040M2H_L1 -592 -592 R270
SYMATTR InstName U3
SYMBOL IMT65R040M2H_L1 32 -528 R0
SYMATTR InstName U4
SYMBOL voltage -1024 -704 R0
WINDOW 123 0 0 Left 0
WINDOW 39 0 0 Left 0
SYMATTR InstName Vin
SYMATTR Value {Vdc}
SYMBOL ind 480 -768 R270
WINDOW 0 32 56 VTop 2
WINDOW 3 5 56 VBottom 2
SYMATTR InstName L1
SYMATTR Value 312.5µ
SYMBOL cap 704 -592 R0
SYMATTR InstName C1
SYMATTR Value 333.3n
SYMBOL res 944 -608 R0
SYMATTR InstName RL
SYMATTR Value 50
SYMBOL voltage -608 -1744 R0
WINDOW 123 0 0 Left 0
WINDOW 39 -273 152 Left 2
WINDOW 3 -475 110 Left 2
SYMATTR Value PULSE(0 5 {td/2} {tr} {tf} {D/fsw-td} {1/fsw})
SYMATTR InstName V6
SYMBOL voltage -608 -1424 R0
WINDOW 123 0 0 Left 0
WINDOW 39 -302 150 Left 2
WINDOW 3 -565 119 Left 2
SYMATTR Value PULSE(0 5 {D/fsw+td/2} {tr} {tf} {(1-D)/fsw-td} {1/fsw})
SYMATTR InstName V7
SYMBOL res 448 -800 R90
WINDOW 0 0 56 VBottom 2
WINDOW 3 32 56 VTop 2
SYMATTR InstName R5
SYMATTR Value 50m
SYMBOL res 736 -368 R180
WINDOW 0 36 76 Left 2
WINDOW 3 36 40 Left 2
SYMATTR InstName R6
SYMATTR Value 10m
TEXT -424 -1008 Left 2 !.MODEL ZLLS350 D IS=14E-8 N=1.03 ISR=9E-8 NR=2 IKF=0.043 BV=56 IBV=1E-4\n    +RS=1.2 TT=1e-9 CJO=13.5E-12 VJ=0.6 M=0.33 EG=0.63 XTI=2 TRS1=4E-3
TEXT -1040 -96 Left 2 !.param Vdc=400 fsw=300e3 tr=1n tf=1n td=160n D=0.66
TEXT -1032 56 Left 2 !.tran 0 {200/fsw} 0 {1/fsw/100}
TEXT -1032 -48 Left 2 !.meas Pin AVG -V(n004)*I(Vin) from {150/fsw} to {200/fsw}\n.meas Pout AVG V(N005)*I(RL) from {150/fsw} to {200/fsw}\n.meas eff param Pout/Pin*100
TEXT -1032 104 Left 2 !.options abstol=1n reltol=0.01 vntol=1m method=trap
