Version 4.1
SHEET 1 1144 680
WIRE -112 48 -176 48
WIRE 96 48 -32 48
WIRE 176 48 96 48
WIRE 336 48 240 48
WIRE 528 48 416 48
WIRE 656 48 528 48
WIRE 848 48 736 48
WIRE 1056 48 912 48
WIRE 96 112 96 48
WIRE 528 112 528 48
WIRE 1056 112 1056 48
WIRE -176 128 -176 48
WIRE -176 256 -176 208
WIRE 96 256 96 176
WIRE 528 256 528 192
WIRE 1056 256 1056 192
FLAG 96 256 0
FLAG 528 256 0
FLAG -176 256 0
FLAG 1056 256 0
SYMBOL voltage -176 112 R0
WINDOW 123 24 124 Left 2
WINDOW 39 0 0 Left 0
SYMATTR InstName V1
SYMATTR Value ""
SYMATTR Value2 AC 1
SYMBOL ind -128 64 R270
WINDOW 0 32 56 VTop 2
WINDOW 3 5 56 VBottom 2
SYMATTR InstName L1
SYMATTR Value {Lm}
SYMATTR SpiceLine Rser=1m
SYMBOL cap 80 112 R0
SYMATTR InstName C1
SYMATTR Value {Cm}
SYMBOL cap 176 64 R270
WINDOW 0 32 32 VTop 2
WINDOW 3 0 32 VBottom 2
SYMATTR InstName C2
SYMATTR Value {Cra}
SYMBOL ind 320 64 R270
WINDOW 0 32 56 VTop 2
WINDOW 3 5 56 VBottom 2
SYMATTR InstName L2
SYMATTR Value {La}
SYMATTR SpiceLine Rser=1m
SYMBOL ind 512 96 R0
SYMATTR InstName L3
SYMATTR Value {M}
SYMATTR SpiceLine Rser=1m
SYMBOL ind 640 64 R270
WINDOW 0 32 56 VTop 2
WINDOW 3 5 56 VBottom 2
SYMATTR InstName L4
SYMATTR Value {Lb}
SYMATTR SpiceLine Rser=1m
SYMBOL cap 848 64 R270
WINDOW 0 32 32 VTop 2
WINDOW 3 0 32 VBottom 2
SYMATTR InstName C3
SYMATTR Value {Crb}
SYMBOL res 1040 96 R0
SYMATTR InstName R1
SYMATTR Value Rload
TEXT -456 -264 Left 2 !.param Lm=10e-6 f_tune=6.75e6 Cm=1/{Lm}/{4*9.869604}/f_tune/f_tune
TEXT -456 -232 Left 2 !.param La=1.974e-6 Cra=1/{La}/{4*9.869604}/f_tune/f_tune
TEXT -456 -200 Left 2 !.param M=1.026e-6 Lb=2.874e-6
TEXT -456 -168 Left 2 !.param Crb=1/{La}/{4*9.869604}/fsw/fsw
TEXT -456 -336 Left 2 !.param fsw=6.78e6 Tsw={1/fsw}
TEXT -456 -136 Left 2 !.param Rload=50
