Version 4.1
SHEET 1 1200 800
TEXT 32 24 Left 2 !.title 6.78MHz WPT (Series-Series)
